CM Length L in mtr. = 0.25
CM Radius R1 in cm. = 0.8
CM Radius R2 in cm. = 0.8
CM Number of turns = 20
CM Segments per turn = 20
CM Rotate X, Y, Z = 0, 0, 0
CM Move X, Y, Z = 0, 0, 0
CE
GW	1	1	0	0	0	.007608	.002472	.000625	.00005
GW	3	1	.007608	.002472	.000625	.006472	.004702	.00125	.00005
GW	4	1	.006472	.004702	.00125	.004702	.006472	.001875	.00005
GW	5	1	.004702	.006472	.001875	.002472	.007608	.0025	.00005
GW	6	1	.002472	.007608	.0025	0	.008	.003125	.00005
GW	7	1	0	.008	.003125	-.002472	.007608	.00375	.00005
GW	8	1	-.002472	.007608	.00375	-.004702	.006472	.004375	.00005
GW	9	1	-.004702	.006472	.004375	-.006472	.004702	.005	.00005
GW	10	1	-.006472	.004702	.005	-.007608	.002472	.005625	.00005
GW	11	1	-.007608	.002472	.005625	-.008	0	.00625	.00005
GW	12	1	-.008	0	.00625	-.007608	-.002472	.006875	.00005
GW	13	1	-.007608	-.002472	.006875	-.006472	-.004702	.0075	.00005
GW	14	1	-.006472	-.004702	.0075	-.004702	-.006472	.008125	.00005
GW	15	1	-.004702	-.006472	.008125	-.002472	-.007608	.00875	.00005
GW	16	1	-.002472	-.007608	.00875	0	-.008	.009375	.00005
GW	17	1	0	-.008	.009375	.002472	-.007608	.01	.00005
GW	18	1	.002472	-.007608	.01	.004702	-.006472	.010625	.00005
GW	19	1	.004702	-.006472	.010625	.006472	-.004702	.01125	.00005
GW	20	1	.006472	-.004702	.01125	.007608	-.002472	.011875	.00005
GW	21	1	.007608	-.002472	.011875	.008	0	.0125	.00005
GW	22	1	.008	0	.0125	.007608	.002472	.013125	.00005
GW	23	1	.007608	.002472	.013125	.006472	.004702	.01375	.00005
GW	24	1	.006472	.004702	.01375	.004702	.006472	.014375	.00005
GW	25	1	.004702	.006472	.014375	.002472	.007608	.015	.00005
GW	26	1	.002472	.007608	.015	0	.008	.015625	.00005
GW	27	1	0	.008	.015625	-.002472	.007608	.01625	.00005
GW	28	1	-.002472	.007608	.01625	-.004702	.006472	.016875	.00005
GW	29	1	-.004702	.006472	.016875	-.006472	.004702	.0175	.00005
GW	30	1	-.006472	.004702	.0175	-.007608	.002472	.018125	.00005
GW	31	1	-.007608	.002472	.018125	-.008	0	.01875	.00005
GW	32	1	-.008	0	.01875	-.007608	-.002472	.019375	.00005
GW	33	1	-.007608	-.002472	.019375	-.006472	-.004702	.02	.00005
GW	34	1	-.006472	-.004702	.02	-.004702	-.006472	.020625	.00005
GW	35	1	-.004702	-.006472	.020625	-.002472	-.007608	.02125	.00005
GW	36	1	-.002472	-.007608	.02125	0	-.008	.021875	.00005
GW	37	1	0	-.008	.021875	.002472	-.007608	.0225	.00005
GW	38	1	.002472	-.007608	.0225	.004702	-.006472	.023125	.00005
GW	39	1	.004702	-.006472	.023125	.006472	-.004702	.02375	.00005
GW	40	1	.006472	-.004702	.02375	.007608	-.002472	.024375	.00005
GW	41	1	.007608	-.002472	.024375	.008	0	.025	.00005
GW	42	1	.008	0	.025	.007608	.002472	.025625	.00005
GW	43	1	.007608	.002472	.025625	.006472	.004702	.02625	.00005
GW	44	1	.006472	.004702	.02625	.004702	.006472	.026875	.00005
GW	45	1	.004702	.006472	.026875	.002472	.007608	.0275	.00005
GW	46	1	.002472	.007608	.0275	0	.008	.028125	.00005
GW	47	1	0	.008	.028125	-.002472	.007608	.02875	.00005
GW	48	1	-.002472	.007608	.02875	-.004702	.006472	.029375	.00005
GW	49	1	-.004702	.006472	.029375	-.006472	.004702	.03	.00005
GW	50	1	-.006472	.004702	.03	-.007608	.002472	.030625	.00005
GW	51	1	-.007608	.002472	.030625	-.008	0	.03125	.00005
GW	52	1	-.008	0	.03125	-.007608	-.002472	.031875	.00005
GW	53	1	-.007608	-.002472	.031875	-.006472	-.004702	.0325	.00005
GW	54	1	-.006472	-.004702	.0325	-.004702	-.006472	.033125	.00005
GW	55	1	-.004702	-.006472	.033125	-.002472	-.007608	.03375	.00005
GW	56	1	-.002472	-.007608	.03375	0	-.008	.034375	.00005
GW	57	1	0	-.008	.034375	.002472	-.007608	.035	.00005
GW	58	1	.002472	-.007608	.035	.004702	-.006472	.035625	.00005
GW	59	1	.004702	-.006472	.035625	.006472	-.004702	.03625	.00005
GW	60	1	.006472	-.004702	.03625	.007608	-.002472	.036875	.00005
GW	61	1	.007608	-.002472	.036875	.008	0	.0375	.00005
GW	62	1	.008	0	.0375	.007608	.002472	.038125	.00005
GW	63	1	.007608	.002472	.038125	.006472	.004702	.03875	.00005
GW	64	1	.006472	.004702	.03875	.004702	.006472	.039375	.00005
GW	65	1	.004702	.006472	.039375	.002472	.007608	.04	.00005
GW	66	1	.002472	.007608	.04	0	.008	.040625	.00005
GW	67	1	0	.008	.040625	-.002472	.007608	.04125	.00005
GW	68	1	-.002472	.007608	.04125	-.004702	.006472	.041875	.00005
GW	69	1	-.004702	.006472	.041875	-.006472	.004702	.0425	.00005
GW	70	1	-.006472	.004702	.0425	-.007608	.002472	.043125	.00005
GW	71	1	-.007608	.002472	.043125	-.008	0	.04375	.00005
GW	72	1	-.008	0	.04375	-.007608	-.002472	.044375	.00005
GW	73	1	-.007608	-.002472	.044375	-.006472	-.004702	.045	.00005
GW	74	1	-.006472	-.004702	.045	-.004702	-.006472	.045625	.00005
GW	75	1	-.004702	-.006472	.045625	-.002472	-.007608	.04625	.00005
GW	76	1	-.002472	-.007608	.04625	0	-.008	.046875	.00005
GW	77	1	0	-.008	.046875	.002472	-.007608	.0475	.00005
GW	78	1	.002472	-.007608	.0475	.004702	-.006472	.048125	.00005
GW	79	1	.004702	-.006472	.048125	.006472	-.004702	.04875	.00005
GW	80	1	.006472	-.004702	.04875	.007608	-.002472	.049375	.00005
GW	81	1	.007608	-.002472	.049375	.008	0	.05	.00005
GW	82	1	.008	0	.05	.007608	.002472	.050625	.00005
GW	83	1	.007608	.002472	.050625	.006472	.004702	.05125	.00005
GW	84	1	.006472	.004702	.05125	.004702	.006472	.051875	.00005
GW	85	1	.004702	.006472	.051875	.002472	.007608	.0525	.00005
GW	86	1	.002472	.007608	.0525	0	.008	.053125	.00005
GW	87	1	0	.008	.053125	-.002472	.007608	.05375	.00005
GW	88	1	-.002472	.007608	.05375	-.004702	.006472	.054375	.00005
GW	89	1	-.004702	.006472	.054375	-.006472	.004702	.055	.00005
GW	90	1	-.006472	.004702	.055	-.007608	.002472	.055625	.00005
GW	91	1	-.007608	.002472	.055625	-.008	0	.05625	.00005
GW	92	1	-.008	0	.05625	-.007608	-.002472	.056875	.00005
GW	93	1	-.007608	-.002472	.056875	-.006472	-.004702	.0575	.00005
GW	94	1	-.006472	-.004702	.0575	-.004702	-.006472	.058125	.00005
GW	95	1	-.004702	-.006472	.058125	-.002472	-.007608	.05875	.00005
GW	96	1	-.002472	-.007608	.05875	0	-.008	.059375	.00005
GW	97	1	0	-.008	.059375	.002472	-.007608	.06	.00005
GW	98	1	.002472	-.007608	.06	.004702	-.006472	.060625	.00005
GW	99	1	.004702	-.006472	.060625	.006472	-.004702	.06125	.00005
GW	100	1	.006472	-.004702	.06125	.007608	-.002472	.061875	.00005
GW	101	1	.007608	-.002472	.061875	.008	0	.0625	.00005
GW	102	1	.008	0	.0625	.007608	.002472	.063125	.00005
GW	103	1	.007608	.002472	.063125	.006472	.004702	.06375	.00005
GW	104	1	.006472	.004702	.06375	.004702	.006472	.064375	.00005
GW	105	1	.004702	.006472	.064375	.002472	.007608	.065	.00005
GW	106	1	.002472	.007608	.065	0	.008	.065625	.00005
GW	107	1	0	.008	.065625	-.002472	.007608	.06625	.00005
GW	108	1	-.002472	.007608	.06625	-.004702	.006472	.066875	.00005
GW	109	1	-.004702	.006472	.066875	-.006472	.004702	.0675	.00005
GW	110	1	-.006472	.004702	.0675	-.007608	.002472	.068125	.00005
GW	111	1	-.007608	.002472	.068125	-.008	0	.06875	.00005
GW	112	1	-.008	0	.06875	-.007608	-.002472	.069375	.00005
GW	113	1	-.007608	-.002472	.069375	-.006472	-.004702	.07	.00005
GW	114	1	-.006472	-.004702	.07	-.004702	-.006472	.070625	.00005
GW	115	1	-.004702	-.006472	.070625	-.002472	-.007608	.07125	.00005
GW	116	1	-.002472	-.007608	.07125	0	-.008	.071875	.00005
GW	117	1	0	-.008	.071875	.002472	-.007608	.0725	.00005
GW	118	1	.002472	-.007608	.0725	.004702	-.006472	.073125	.00005
GW	119	1	.004702	-.006472	.073125	.006472	-.004702	.07375	.00005
GW	120	1	.006472	-.004702	.07375	.007608	-.002472	.074375	.00005
GW	121	1	.007608	-.002472	.074375	.008	0	.075	.00005
GW	122	1	.008	0	.075	.007608	.002472	.075625	.00005
GW	123	1	.007608	.002472	.075625	.006472	.004702	.07625	.00005
GW	124	1	.006472	.004702	.07625	.004702	.006472	.076875	.00005
GW	125	1	.004702	.006472	.076875	.002472	.007608	.0775	.00005
GW	126	1	.002472	.007608	.0775	0	.008	.078125	.00005
GW	127	1	0	.008	.078125	-.002472	.007608	.07875	.00005
GW	128	1	-.002472	.007608	.07875	-.004702	.006472	.079375	.00005
GW	129	1	-.004702	.006472	.079375	-.006472	.004702	.08	.00005
GW	130	1	-.006472	.004702	.08	-.007608	.002472	.080625	.00005
GW	131	1	-.007608	.002472	.080625	-.008	0	.08125	.00005
GW	132	1	-.008	0	.08125	-.007608	-.002472	.081875	.00005
GW	133	1	-.007608	-.002472	.081875	-.006472	-.004702	.0825	.00005
GW	134	1	-.006472	-.004702	.0825	-.004702	-.006472	.083125	.00005
GW	135	1	-.004702	-.006472	.083125	-.002472	-.007608	.08375	.00005
GW	136	1	-.002472	-.007608	.08375	0	-.008	.084375	.00005
GW	137	1	0	-.008	.084375	.002472	-.007608	.085	.00005
GW	138	1	.002472	-.007608	.085	.004702	-.006472	.085625	.00005
GW	139	1	.004702	-.006472	.085625	.006472	-.004702	.08625	.00005
GW	140	1	.006472	-.004702	.08625	.007608	-.002472	.086875	.00005
GW	141	1	.007608	-.002472	.086875	.008	0	.0875	.00005
GW	142	1	.008	0	.0875	.007608	.002472	.088125	.00005
GW	143	1	.007608	.002472	.088125	.006472	.004702	.08875	.00005
GW	144	1	.006472	.004702	.08875	.004702	.006472	.089375	.00005
GW	145	1	.004702	.006472	.089375	.002472	.007608	.09	.00005
GW	146	1	.002472	.007608	.09	0	.008	.090625	.00005
GW	147	1	0	.008	.090625	-.002472	.007608	.09125	.00005
GW	148	1	-.002472	.007608	.09125	-.004702	.006472	.091875	.00005
GW	149	1	-.004702	.006472	.091875	-.006472	.004702	.0925	.00005
GW	150	1	-.006472	.004702	.0925	-.007608	.002472	.093125	.00005
GW	151	1	-.007608	.002472	.093125	-.008	0	.09375	.00005
GW	152	1	-.008	0	.09375	-.007608	-.002472	.094375	.00005
GW	153	1	-.007608	-.002472	.094375	-.006472	-.004702	.095	.00005
GW	154	1	-.006472	-.004702	.095	-.004702	-.006472	.095625	.00005
GW	155	1	-.004702	-.006472	.095625	-.002472	-.007608	.09625	.00005
GW	156	1	-.002472	-.007608	.09625	0	-.008	.096875	.00005
GW	157	1	0	-.008	.096875	.002472	-.007608	.0975	.00005
GW	158	1	.002472	-.007608	.0975	.004702	-.006472	.098125	.00005
GW	159	1	.004702	-.006472	.098125	.006472	-.004702	.09875	.00005
GW	160	1	.006472	-.004702	.09875	.007608	-.002472	.099375	.00005
GW	161	1	.007608	-.002472	.099375	.008	0	.1	.00005
GW	162	1	.008	0	.1	.007608	.002472	.100625	.00005
GW	163	1	.007608	.002472	.100625	.006472	.004702	.10125	.00005
GW	164	1	.006472	.004702	.10125	.004702	.006472	.101875	.00005
GW	165	1	.004702	.006472	.101875	.002472	.007608	.1025	.00005
GW	166	1	.002472	.007608	.1025	0	.008	.103125	.00005
GW	167	1	0	.008	.103125	-.002472	.007608	.10375	.00005
GW	168	1	-.002472	.007608	.10375	-.004702	.006472	.104375	.00005
GW	169	1	-.004702	.006472	.104375	-.006472	.004702	.105	.00005
GW	170	1	-.006472	.004702	.105	-.007608	.002472	.105625	.00005
GW	171	1	-.007608	.002472	.105625	-.008	0	.10625	.00005
GW	172	1	-.008	0	.10625	-.007608	-.002472	.106875	.00005
GW	173	1	-.007608	-.002472	.106875	-.006472	-.004702	.1075	.00005
GW	174	1	-.006472	-.004702	.1075	-.004702	-.006472	.108125	.00005
GW	175	1	-.004702	-.006472	.108125	-.002472	-.007608	.10875	.00005
GW	176	1	-.002472	-.007608	.10875	0	-.008	.109375	.00005
GW	177	1	0	-.008	.109375	.002472	-.007608	.11	.00005
GW	178	1	.002472	-.007608	.11	.004702	-.006472	.110625	.00005
GW	179	1	.004702	-.006472	.110625	.006472	-.004702	.11125	.00005
GW	180	1	.006472	-.004702	.11125	.007608	-.002472	.111875	.00005
GW	181	1	.007608	-.002472	.111875	.008	0	.1125	.00005
GW	182	1	.008	0	.1125	.007608	.002472	.113125	.00005
GW	183	1	.007608	.002472	.113125	.006472	.004702	.11375	.00005
GW	184	1	.006472	.004702	.11375	.004702	.006472	.114375	.00005
GW	185	1	.004702	.006472	.114375	.002472	.007608	.115	.00005
GW	186	1	.002472	.007608	.115	0	.008	.115625	.00005
GW	187	1	0	.008	.115625	-.002472	.007608	.11625	.00005
GW	188	1	-.002472	.007608	.11625	-.004702	.006472	.116875	.00005
GW	189	1	-.004702	.006472	.116875	-.006472	.004702	.1175	.00005
GW	190	1	-.006472	.004702	.1175	-.007608	.002472	.118125	.00005
GW	191	1	-.007608	.002472	.118125	-.008	0	.11875	.00005
GW	192	1	-.008	0	.11875	-.007608	-.002472	.119375	.00005
GW	193	1	-.007608	-.002472	.119375	-.006472	-.004702	.12	.00005
GW	194	1	-.006472	-.004702	.12	-.004702	-.006472	.120625	.00005
GW	195	1	-.004702	-.006472	.120625	-.002472	-.007608	.12125	.00005
GW	196	1	-.002472	-.007608	.12125	0	-.008	.121875	.00005
GW	197	1	0	-.008	.121875	.002472	-.007608	.1225	.00005
GW	198	1	.002472	-.007608	.1225	.004702	-.006472	.123125	.00005
GW	199	1	.004702	-.006472	.123125	.006472	-.004702	.12375	.00005
GW	200	1	.006472	-.004702	.12375	.007608	-.002472	.124375	.00005
GW	201	1	.007608	-.002472	.124375	.008	0	.125	.00005
GW	202	1	.008	0	.125	.007608	.002472	.125625	.00005
GW	203	1	.007608	.002472	.125625	.006472	.004702	.12625	.00005
GW	204	1	.006472	.004702	.12625	.004702	.006472	.126875	.00005
GW	205	1	.004702	.006472	.126875	.002472	.007608	.1275	.00005
GW	206	1	.002472	.007608	.1275	0	.008	.128125	.00005
GW	207	1	0	.008	.128125	-.002472	.007608	.12875	.00005
GW	208	1	-.002472	.007608	.12875	-.004702	.006472	.129375	.00005
GW	209	1	-.004702	.006472	.129375	-.006472	.004702	.13	.00005
GW	210	1	-.006472	.004702	.13	-.007608	.002472	.130625	.00005
GW	211	1	-.007608	.002472	.130625	-.008	0	.13125	.00005
GW	212	1	-.008	0	.13125	-.007608	-.002472	.131875	.00005
GW	213	1	-.007608	-.002472	.131875	-.006472	-.004702	.1325	.00005
GW	214	1	-.006472	-.004702	.1325	-.004702	-.006472	.133125	.00005
GW	215	1	-.004702	-.006472	.133125	-.002472	-.007608	.13375	.00005
GW	216	1	-.002472	-.007608	.13375	0	-.008	.134375	.00005
GW	217	1	0	-.008	.134375	.002472	-.007608	.135	.00005
GW	218	1	.002472	-.007608	.135	.004702	-.006472	.135625	.00005
GW	219	1	.004702	-.006472	.135625	.006472	-.004702	.13625	.00005
GW	220	1	.006472	-.004702	.13625	.007608	-.002472	.136875	.00005
GW	221	1	.007608	-.002472	.136875	.008	0	.1375	.00005
GW	222	1	.008	0	.1375	.007608	.002472	.138125	.00005
GW	223	1	.007608	.002472	.138125	.006472	.004702	.13875	.00005
GW	224	1	.006472	.004702	.13875	.004702	.006472	.139375	.00005
GW	225	1	.004702	.006472	.139375	.002472	.007608	.14	.00005
GW	226	1	.002472	.007608	.14	0	.008	.140625	.00005
GW	227	1	0	.008	.140625	-.002472	.007608	.14125	.00005
GW	228	1	-.002472	.007608	.14125	-.004702	.006472	.141875	.00005
GW	229	1	-.004702	.006472	.141875	-.006472	.004702	.1425	.00005
GW	230	1	-.006472	.004702	.1425	-.007608	.002472	.143125	.00005
GW	231	1	-.007608	.002472	.143125	-.008	0	.14375	.00005
GW	232	1	-.008	0	.14375	-.007608	-.002472	.144375	.00005
GW	233	1	-.007608	-.002472	.144375	-.006472	-.004702	.145	.00005
GW	234	1	-.006472	-.004702	.145	-.004702	-.006472	.145625	.00005
GW	235	1	-.004702	-.006472	.145625	-.002472	-.007608	.14625	.00005
GW	236	1	-.002472	-.007608	.14625	0	-.008	.146875	.00005
GW	237	1	0	-.008	.146875	.002472	-.007608	.1475	.00005
GW	238	1	.002472	-.007608	.1475	.004702	-.006472	.148125	.00005
GW	239	1	.004702	-.006472	.148125	.006472	-.004702	.14875	.00005
GW	240	1	.006472	-.004702	.14875	.007608	-.002472	.149375	.00005
GW	241	1	.007608	-.002472	.149375	.008	0	.15	.00005
GW	242	1	.008	0	.15	.007608	.002472	.150625	.00005
GW	243	1	.007608	.002472	.150625	.006472	.004702	.15125	.00005
GW	244	1	.006472	.004702	.15125	.004702	.006472	.151875	.00005
GW	245	1	.004702	.006472	.151875	.002472	.007608	.1525	.00005
GW	246	1	.002472	.007608	.1525	0	.008	.153125	.00005
GW	247	1	0	.008	.153125	-.002472	.007608	.15375	.00005
GW	248	1	-.002472	.007608	.15375	-.004702	.006472	.154375	.00005
GW	249	1	-.004702	.006472	.154375	-.006472	.004702	.155	.00005
GW	250	1	-.006472	.004702	.155	-.007608	.002472	.155625	.00005
GW	251	1	-.007608	.002472	.155625	-.008	0	.15625	.00005
GW	252	1	-.008	0	.15625	-.007608	-.002472	.156875	.00005
GW	253	1	-.007608	-.002472	.156875	-.006472	-.004702	.1575	.00005
GW	254	1	-.006472	-.004702	.1575	-.004702	-.006472	.158125	.00005
GW	255	1	-.004702	-.006472	.158125	-.002472	-.007608	.15875	.00005
GW	256	1	-.002472	-.007608	.15875	0	-.008	.159375	.00005
GW	257	1	0	-.008	.159375	.002472	-.007608	.16	.00005
GW	258	1	.002472	-.007608	.16	.004702	-.006472	.160625	.00005
GW	259	1	.004702	-.006472	.160625	.006472	-.004702	.16125	.00005
GW	260	1	.006472	-.004702	.16125	.007608	-.002472	.161875	.00005
GW	261	1	.007608	-.002472	.161875	.008	0	.1625	.00005
GW	262	1	.008	0	.1625	.007608	.002472	.163125	.00005
GW	263	1	.007608	.002472	.163125	.006472	.004702	.16375	.00005
GW	264	1	.006472	.004702	.16375	.004702	.006472	.164375	.00005
GW	265	1	.004702	.006472	.164375	.002472	.007608	.165	.00005
GW	266	1	.002472	.007608	.165	0	.008	.165625	.00005
GW	267	1	0	.008	.165625	-.002472	.007608	.16625	.00005
GW	268	1	-.002472	.007608	.16625	-.004702	.006472	.166875	.00005
GW	269	1	-.004702	.006472	.166875	-.006472	.004702	.1675	.00005
GW	270	1	-.006472	.004702	.1675	-.007608	.002472	.168125	.00005
GW	271	1	-.007608	.002472	.168125	-.008	0	.16875	.00005
GW	272	1	-.008	0	.16875	-.007608	-.002472	.169375	.00005
GW	273	1	-.007608	-.002472	.169375	-.006472	-.004702	.17	.00005
GW	274	1	-.006472	-.004702	.17	-.004702	-.006472	.170625	.00005
GW	275	1	-.004702	-.006472	.170625	-.002472	-.007608	.17125	.00005
GW	276	1	-.002472	-.007608	.17125	0	-.008	.171875	.00005
GW	277	1	0	-.008	.171875	.002472	-.007608	.1725	.00005
GW	278	1	.002472	-.007608	.1725	.004702	-.006472	.173125	.00005
GW	279	1	.004702	-.006472	.173125	.006472	-.004702	.17375	.00005
GW	280	1	.006472	-.004702	.17375	.007608	-.002472	.174375	.00005
GW	281	1	.007608	-.002472	.174375	.008	0	.175	.00005
GW	282	1	.008	0	.175	.007608	.002472	.175625	.00005
GW	283	1	.007608	.002472	.175625	.006472	.004702	.17625	.00005
GW	284	1	.006472	.004702	.17625	.004702	.006472	.176875	.00005
GW	285	1	.004702	.006472	.176875	.002472	.007608	.1775	.00005
GW	286	1	.002472	.007608	.1775	0	.008	.178125	.00005
GW	287	1	0	.008	.178125	-.002472	.007608	.17875	.00005
GW	288	1	-.002472	.007608	.17875	-.004702	.006472	.179375	.00005
GW	289	1	-.004702	.006472	.179375	-.006472	.004702	.18	.00005
GW	290	1	-.006472	.004702	.18	-.007608	.002472	.180625	.00005
GW	291	1	-.007608	.002472	.180625	-.008	0	.18125	.00005
GW	292	1	-.008	0	.18125	-.007608	-.002472	.181875	.00005
GW	293	1	-.007608	-.002472	.181875	-.006472	-.004702	.1825	.00005
GW	294	1	-.006472	-.004702	.1825	-.004702	-.006472	.183125	.00005
GW	295	1	-.004702	-.006472	.183125	-.002472	-.007608	.18375	.00005
GW	296	1	-.002472	-.007608	.18375	0	-.008	.184375	.00005
GW	297	1	0	-.008	.184375	.002472	-.007608	.185	.00005
GW	298	1	.002472	-.007608	.185	.004702	-.006472	.185625	.00005
GW	299	1	.004702	-.006472	.185625	.006472	-.004702	.18625	.00005
GW	300	1	.006472	-.004702	.18625	.007608	-.002472	.186875	.00005
GW	301	1	.007608	-.002472	.186875	.008	0	.1875	.00005
GW	302	1	.008	0	.1875	.007608	.002472	.188125	.00005
GW	303	1	.007608	.002472	.188125	.006472	.004702	.18875	.00005
GW	304	1	.006472	.004702	.18875	.004702	.006472	.189375	.00005
GW	305	1	.004702	.006472	.189375	.002472	.007608	.19	.00005
GW	306	1	.002472	.007608	.19	0	.008	.190625	.00005
GW	307	1	0	.008	.190625	-.002472	.007608	.19125	.00005
GW	308	1	-.002472	.007608	.19125	-.004702	.006472	.191875	.00005
GW	309	1	-.004702	.006472	.191875	-.006472	.004702	.1925	.00005
GW	310	1	-.006472	.004702	.1925	-.007608	.002472	.193125	.00005
GW	311	1	-.007608	.002472	.193125	-.008	0	.19375	.00005
GW	312	1	-.008	0	.19375	-.007608	-.002472	.194375	.00005
GW	313	1	-.007608	-.002472	.194375	-.006472	-.004702	.195	.00005
GW	314	1	-.006472	-.004702	.195	-.004702	-.006472	.195625	.00005
GW	315	1	-.004702	-.006472	.195625	-.002472	-.007608	.19625	.00005
GW	316	1	-.002472	-.007608	.19625	0	-.008	.196875	.00005
GW	317	1	0	-.008	.196875	.002472	-.007608	.1975	.00005
GW	318	1	.002472	-.007608	.1975	.004702	-.006472	.198125	.00005
GW	319	1	.004702	-.006472	.198125	.006472	-.004702	.19875	.00005
GW	320	1	.006472	-.004702	.19875	.007608	-.002472	.199375	.00005
GW	321	1	.007608	-.002472	.199375	.008	0	.2	.00005
GW	322	1	.008	0	.2	.007608	.002472	.200625	.00005
GW	323	1	.007608	.002472	.200625	.006472	.004702	.20125	.00005
GW	324	1	.006472	.004702	.20125	.004702	.006472	.201875	.00005
GW	325	1	.004702	.006472	.201875	.002472	.007608	.2025	.00005
GW	326	1	.002472	.007608	.2025	0	.008	.203125	.00005
GW	327	1	0	.008	.203125	-.002472	.007608	.20375	.00005
GW	328	1	-.002472	.007608	.20375	-.004702	.006472	.204375	.00005
GW	329	1	-.004702	.006472	.204375	-.006472	.004702	.205	.00005
GW	330	1	-.006472	.004702	.205	-.007608	.002472	.205625	.00005
GW	331	1	-.007608	.002472	.205625	-.008	0	.20625	.00005
GW	332	1	-.008	0	.20625	-.007608	-.002472	.206875	.00005
GW	333	1	-.007608	-.002472	.206875	-.006472	-.004702	.2075	.00005
GW	334	1	-.006472	-.004702	.2075	-.004702	-.006472	.208125	.00005
GW	335	1	-.004702	-.006472	.208125	-.002472	-.007608	.20875	.00005
GW	336	1	-.002472	-.007608	.20875	0	-.008	.209375	.00005
GW	337	1	0	-.008	.209375	.002472	-.007608	.21	.00005
GW	338	1	.002472	-.007608	.21	.004702	-.006472	.210625	.00005
GW	339	1	.004702	-.006472	.210625	.006472	-.004702	.21125	.00005
GW	340	1	.006472	-.004702	.21125	.007608	-.002472	.211875	.00005
GW	341	1	.007608	-.002472	.211875	.008	0	.2125	.00005
GW	342	1	.008	0	.2125	.007608	.002472	.213125	.00005
GW	343	1	.007608	.002472	.213125	.006472	.004702	.21375	.00005
GW	344	1	.006472	.004702	.21375	.004702	.006472	.214375	.00005
GW	345	1	.004702	.006472	.214375	.002472	.007608	.215	.00005
GW	346	1	.002472	.007608	.215	0	.008	.215625	.00005
GW	347	1	0	.008	.215625	-.002472	.007608	.21625	.00005
GW	348	1	-.002472	.007608	.21625	-.004702	.006472	.216875	.00005
GW	349	1	-.004702	.006472	.216875	-.006472	.004702	.2175	.00005
GW	350	1	-.006472	.004702	.2175	-.007608	.002472	.218125	.00005
GW	351	1	-.007608	.002472	.218125	-.008	0	.21875	.00005
GW	352	1	-.008	0	.21875	-.007608	-.002472	.219375	.00005
GW	353	1	-.007608	-.002472	.219375	-.006472	-.004702	.22	.00005
GW	354	1	-.006472	-.004702	.22	-.004702	-.006472	.220625	.00005
GW	355	1	-.004702	-.006472	.220625	-.002472	-.007608	.22125	.00005
GW	356	1	-.002472	-.007608	.22125	0	-.008	.221875	.00005
GW	357	1	0	-.008	.221875	.002472	-.007608	.2225	.00005
GW	358	1	.002472	-.007608	.2225	.004702	-.006472	.223125	.00005
GW	359	1	.004702	-.006472	.223125	.006472	-.004702	.22375	.00005
GW	360	1	.006472	-.004702	.22375	.007608	-.002472	.224375	.00005
GW	361	1	.007608	-.002472	.224375	.008	0	.225	.00005
GW	362	1	.008	0	.225	.007608	.002472	.225625	.00005
GW	363	1	.007608	.002472	.225625	.006472	.004702	.22625	.00005
GW	364	1	.006472	.004702	.22625	.004702	.006472	.226875	.00005
GW	365	1	.004702	.006472	.226875	.002472	.007608	.2275	.00005
GW	366	1	.002472	.007608	.2275	0	.008	.228125	.00005
GW	367	1	0	.008	.228125	-.002472	.007608	.22875	.00005
GW	368	1	-.002472	.007608	.22875	-.004702	.006472	.229375	.00005
GW	369	1	-.004702	.006472	.229375	-.006472	.004702	.23	.00005
GW	370	1	-.006472	.004702	.23	-.007608	.002472	.230625	.00005
GW	371	1	-.007608	.002472	.230625	-.008	0	.23125	.00005
GW	372	1	-.008	0	.23125	-.007608	-.002472	.231875	.00005
GW	373	1	-.007608	-.002472	.231875	-.006472	-.004702	.2325	.00005
GW	374	1	-.006472	-.004702	.2325	-.004702	-.006472	.233125	.00005
GW	375	1	-.004702	-.006472	.233125	-.002472	-.007608	.23375	.00005
GW	376	1	-.002472	-.007608	.23375	0	-.008	.234375	.00005
GW	377	1	0	-.008	.234375	.002472	-.007608	.235	.00005
GW	378	1	.002472	-.007608	.235	.004702	-.006472	.235625	.00005
GW	379	1	.004702	-.006472	.235625	.006472	-.004702	.23625	.00005
GW	380	1	.006472	-.004702	.23625	.007608	-.002472	.236875	.00005
GW	381	1	.007608	-.002472	.236875	.008	0	.2375	.00005
GW	382	1	.008	0	.2375	.007608	.002472	.238125	.00005
GW	383	1	.007608	.002472	.238125	.006472	.004702	.23875	.00005
GW	384	1	.006472	.004702	.23875	.004702	.006472	.239375	.00005
GW	385	1	.004702	.006472	.239375	.002472	.007608	.24	.00005
GW	386	1	.002472	.007608	.24	0	.008	.240625	.00005
GW	387	1	0	.008	.240625	-.002472	.007608	.24125	.00005
GW	388	1	-.002472	.007608	.24125	-.004702	.006472	.241875	.00005
GW	389	1	-.004702	.006472	.241875	-.006472	.004702	.2425	.00005
GW	390	1	-.006472	.004702	.2425	-.007608	.002472	.243125	.00005
GW	391	1	-.007608	.002472	.243125	-.008	0	.24375	.00005
GW	392	1	-.008	0	.24375	-.007608	-.002472	.244375	.00005
GW	393	1	-.007608	-.002472	.244375	-.006472	-.004702	.245	.00005
GW	394	1	-.006472	-.004702	.245	-.004702	-.006472	.245625	.00005
GW	395	1	-.004702	-.006472	.245625	-.002472	-.007608	.24625	.00005
GW	396	1	-.002472	-.007608	.24625	0	-.008	.246875	.00005
GW	397	1	0	-.008	.246875	.002472	-.007608	.2475	.00005
GW	398	1	.002472	-.007608	.2475	.004702	-.006472	.248125	.00005
GW	399	1	.004702	-.006472	.248125	.006472	-.004702	.24875	.00005
GW	400	1	.006472	-.004702	.24875	.007608	-.002472	.249375	.00005
GW	401	1	.007608	-.002472	.249375	.008	0	.25	.00005
GW	402	1	.008	0	.25	0	0	.25	.00005
GW	403	1	0	0	0	.005	0	0	.000082
GW	404	1	.005	0	0	.01	0	0	.000203
GW	405	1	.01	0	0	.015	0	0	.000289
GW	406	1	.015	0	0	.02	0	0	.000353
GW	407	1	.02	0	0	.025	0	0	.000402
GW	408	1	0	0	0	.00483	.001294	0	.000082
GW	409	1	.00483	.001294	0	.009659	.002588	0	.000203
GW	410	1	.009659	.002588	0	.014489	.003882	0	.000289
GW	411	1	.014489	.003882	0	.019319	.005176	0	.000353
GW	412	1	.019319	.005176	0	.024148	.00647	0	.000402
GW	413	1	0	0	0	.00433	.0025	0	.000082
GW	414	1	.00433	.0025	0	.00866	.005	0	.000203
GW	415	1	.00866	.005	0	.01299	.0075	0	.000289
GW	416	1	.01299	.0075	0	.017321	.01	0	.000353
GW	417	1	.017321	.01	0	.021651	.0125	0	.000402
GW	418	1	0	0	0	.003536	.003536	0	.000082
GW	419	1	.003536	.003536	0	.007071	.007071	0	.000203
GW	420	1	.007071	.007071	0	.010607	.010607	0	.000289
GW	421	1	.010607	.010607	0	.014142	.014142	0	.000353
GW	422	1	.014142	.014142	0	.017678	.017678	0	.000402
GW	423	1	0	0	0	.0025	.00433	0	.000082
GW	424	1	.0025	.00433	0	.005	.00866	0	.000203
GW	425	1	.005	.00866	0	.0075	.01299	0	.000289
GW	426	1	.0075	.01299	0	.01	.017321	0	.000353
GW	427	1	.01	.017321	0	.0125	.021651	0	.000402
GW	428	1	0	0	0	.001294	.00483	0	.000082
GW	429	1	.001294	.00483	0	.002588	.009659	0	.000203
GW	430	1	.002588	.009659	0	.003882	.014489	0	.000289
GW	431	1	.003882	.014489	0	.005176	.019319	0	.000353
GW	432	1	.005176	.019319	0	.00647	.024148	0	.000402
GW	433	1	0	0	0	0	.005	0	.000082
GW	434	1	0	.005	0	0	.01	0	.000203
GW	435	1	0	.01	0	0	.015	0	.000289
GW	436	1	0	.015	0	0	.02	0	.000353
GW	437	1	0	.02	0	0	.025	0	.000402
GW	438	1	0	0	0	-.001294	.00483	0	.000082
GW	439	1	-.001294	.00483	0	-.002588	.009659	0	.000203
GW	440	1	-.002588	.009659	0	-.003882	.014489	0	.000289
GW	441	1	-.003882	.014489	0	-.005176	.019319	0	.000353
GW	442	1	-.005176	.019319	0	-.00647	.024148	0	.000402
GW	443	1	0	0	0	-.0025	.00433	0	.000082
GW	444	1	-.0025	.00433	0	-.005	.00866	0	.000203
GW	445	1	-.005	.00866	0	-.0075	.01299	0	.000289
GW	446	1	-.0075	.01299	0	-.01	.017321	0	.000353
GW	447	1	-.01	.017321	0	-.0125	.021651	0	.000402
GW	448	1	0	0	0	-.003536	.003536	0	.000082
GW	449	1	-.003536	.003536	0	-.007071	.007071	0	.000203
GW	450	1	-.007071	.007071	0	-.010607	.010607	0	.000289
GW	451	1	-.010607	.010607	0	-.014142	.014142	0	.000353
GW	452	1	-.014142	.014142	0	-.017678	.017678	0	.000402
GW	453	1	0	0	0	-.00433	.0025	0	.000082
GW	454	1	-.00433	.0025	0	-.00866	.005	0	.000203
GW	455	1	-.00866	.005	0	-.01299	.0075	0	.000289
GW	456	1	-.01299	.0075	0	-.017321	.01	0	.000353
GW	457	1	-.017321	.01	0	-.021651	.0125	0	.000402
GW	458	1	0	0	0	-.00483	.001294	0	.000082
GW	459	1	-.00483	.001294	0	-.009659	.002588	0	.000203
GW	460	1	-.009659	.002588	0	-.014489	.003882	0	.000289
GW	461	1	-.014489	.003882	0	-.019319	.005176	0	.000353
GW	462	1	-.019319	.005176	0	-.024148	.00647	0	.000402
GW	463	1	0	0	0	-.005	0	0	.000082
GW	464	1	-.005	0	0	-.01	0	0	.000203
GW	465	1	-.01	0	0	-.015	0	0	.000289
GW	466	1	-.015	0	0	-.02	0	0	.000353
GW	467	1	-.02	0	0	-.025	0	0	.000402
GW	468	1	0	0	0	-.00483	-.001294	0	.000082
GW	469	1	-.00483	-.001294	0	-.009659	-.002588	0	.000203
GW	470	1	-.009659	-.002588	0	-.014489	-.003882	0	.000289
GW	471	1	-.014489	-.003882	0	-.019319	-.005176	0	.000353
GW	472	1	-.019319	-.005176	0	-.024148	-.00647	0	.000402
GW	473	1	0	0	0	-.00433	-.0025	0	.000082
GW	474	1	-.00433	-.0025	0	-.00866	-.005	0	.000203
GW	475	1	-.00866	-.005	0	-.01299	-.0075	0	.000289
GW	476	1	-.01299	-.0075	0	-.017321	-.01	0	.000353
GW	477	1	-.017321	-.01	0	-.021651	-.0125	0	.000402
GW	478	1	0	0	0	-.003536	-.003536	0	.000082
GW	479	1	-.003536	-.003536	0	-.007071	-.007071	0	.000203
GW	480	1	-.007071	-.007071	0	-.010607	-.010607	0	.000289
GW	481	1	-.010607	-.010607	0	-.014142	-.014142	0	.000353
GW	482	1	-.014142	-.014142	0	-.017678	-.017678	0	.000402
GW	483	1	0	0	0	-.0025	-.00433	0	.000082
GW	484	1	-.0025	-.00433	0	-.005	-.00866	0	.000203
GW	485	1	-.005	-.00866	0	-.0075	-.01299	0	.000289
GW	486	1	-.0075	-.01299	0	-.01	-.017321	0	.000353
GW	487	1	-.01	-.017321	0	-.0125	-.021651	0	.000402
GW	488	1	0	0	0	-.001294	-.00483	0	.000082
GW	489	1	-.001294	-.00483	0	-.002588	-.009659	0	.000203
GW	490	1	-.002588	-.009659	0	-.003882	-.014489	0	.000289
GW	491	1	-.003882	-.014489	0	-.005176	-.019319	0	.000353
GW	492	1	-.005176	-.019319	0	-.00647	-.024148	0	.000402
GW	493	1	0	0	0	0	-.005	0	.000082
GW	494	1	0	-.005	0	0	-.01	0	.000203
GW	495	1	0	-.01	0	0	-.015	0	.000289
GW	496	1	0	-.015	0	0	-.02	0	.000353
GW	497	1	0	-.02	0	0	-.025	0	.000402
GW	498	1	0	0	0	.001294	-.00483	0	.000082
GW	499	1	.001294	-.00483	0	.002588	-.009659	0	.000203
GW	500	1	.002588	-.009659	0	.003882	-.014489	0	.000289
GW	501	1	.003882	-.014489	0	.005176	-.019319	0	.000353
GW	502	1	.005176	-.019319	0	.00647	-.024148	0	.000402
GW	503	1	0	0	0	.0025	-.00433	0	.000082
GW	504	1	.0025	-.00433	0	.005	-.00866	0	.000203
GW	505	1	.005	-.00866	0	.0075	-.01299	0	.000289
GW	506	1	.0075	-.01299	0	.01	-.017321	0	.000353
GW	507	1	.01	-.017321	0	.0125	-.021651	0	.000402
GW	508	1	0	0	0	.003536	-.003536	0	.000082
GW	509	1	.003536	-.003536	0	.007071	-.007071	0	.000203
GW	510	1	.007071	-.007071	0	.010607	-.010607	0	.000289
GW	511	1	.010607	-.010607	0	.014142	-.014142	0	.000353
GW	512	1	.014142	-.014142	0	.017678	-.017678	0	.000402
GW	513	1	0	0	0	.00433	-.0025	0	.000082
GW	514	1	.00433	-.0025	0	.00866	-.005	0	.000203
GW	515	1	.00866	-.005	0	.01299	-.0075	0	.000289
GW	516	1	.01299	-.0075	0	.017321	-.01	0	.000353
GW	517	1	.017321	-.01	0	.021651	-.0125	0	.000402
GW	518	1	0	0	0	.00483	-.001294	0	.000082
GW	519	1	.00483	-.001294	0	.009659	-.002588	0	.000203
GW	520	1	.009659	-.002588	0	.014489	-.003882	0	.000289
GW	521	1	.014489	-.003882	0	.019319	-.005176	0	.000353
GW	522	1	.019319	-.005176	0	.024148	-.00647	0	.000402
GW	523	1	.005	0	0	.00483	.001294	0	.000082
GW	524	1	.00483	.001294	0	.00433	.0025	0	.000082