CM Start angle A1 = 0
CM Stop angle A2 = 360
CM Radial sections = 24
CM Circular sections = 5
CM Rotate X, Y, Z = 0, 0, 0
CM Move X, Y, Z = 0, 0, 0
CE
GW   403    1       .0       .0       .0     .005       .0       .0  .000082
GW   404    1     .005       .0       .0      .01       .0       .0  .000203
GW   405    1      .01       .0       .0     .015       .0       .0  .000289
GW   406    1     .015       .0       .0      .02       .0       .0  .000353
GW   407    1      .02       .0       .0     .025       .0       .0  .000402
GW   408    1       .0       .0       .0   .00483  .001294       .0  .000082
GW   409    1   .00483  .001294       .0  .009659  .002588       .0  .000203
GW   410    1  .009659  .002588       .0  .014489  .003882       .0  .000289
GW   411    1  .014489  .003882       .0  .019319  .005176       .0  .000353
GW   412    1  .019319  .005176       .0  .024148   .00647       .0  .000402
GW   413    1       .0       .0       .0   .00433    .0025       .0  .000082
GW   414    1   .00433    .0025       .0   .00866     .005       .0  .000203
GW   415    1   .00866     .005       .0   .01299    .0075       .0  .000289
GW   416    1   .01299    .0075       .0  .017321      .01       .0  .000353
GW   417    1  .017321      .01       .0  .021651    .0125       .0  .000402
GW   418    1       .0       .0       .0  .003536  .003536       .0  .000082
GW   419    1  .003536  .003536       .0  .007071  .007071       .0  .000203
GW   420    1  .007071  .007071       .0  .010607  .010607       .0  .000289
GW   421    1  .010607  .010607       .0  .014142  .014142       .0  .000353
GW   422    1  .014142  .014142       .0  .017678  .017678       .0  .000402
GW   423    1       .0       .0       .0    .0025   .00433       .0  .000082
GW   424    1    .0025   .00433       .0     .005   .00866       .0  .000203
GW   425    1     .005   .00866       .0    .0075   .01299       .0  .000289
GW   426    1    .0075   .01299       .0      .01  .017321       .0  .000353
GW   427    1      .01  .017321       .0    .0125  .021651       .0  .000402
GW   428    1       .0       .0       .0  .001294   .00483       .0  .000082
GW   429    1  .001294   .00483       .0  .002588  .009659       .0  .000203
GW   430    1  .002588  .009659       .0  .003882  .014489       .0  .000289
GW   431    1  .003882  .014489       .0  .005176  .019319       .0  .000353
GW   432    1  .005176  .019319       .0   .00647  .024148       .0  .000402
GW   433    1       .0       .0       .0       .0     .005       .0  .000082
GW   434    1       .0     .005       .0       .0      .01       .0  .000203
GW   435    1       .0      .01       .0       .0     .015       .0  .000289
GW   436    1       .0     .015       .0       .0      .02       .0  .000353
GW   437    1       .0      .02       .0       .0     .025       .0  .000402
GW   438    1       .0       .0       .0 -.001294   .00483       .0  .000082
GW   439    1 -.001294   .00483       .0 -.002588  .009659       .0  .000203
GW   440    1 -.002588  .009659       .0 -.003882  .014489       .0  .000289
GW   441    1 -.003882  .014489       .0 -.005176  .019319       .0  .000353
GW   442    1 -.005176  .019319       .0  -.00647  .024148       .0  .000402
GW   443    1       .0       .0       .0   -.0025   .00433       .0  .000082
GW   444    1   -.0025   .00433       .0    -.005   .00866       .0  .000203
GW   445    1    -.005   .00866       .0   -.0075   .01299       .0  .000289
GW   446    1   -.0075   .01299       .0     -.01  .017321       .0  .000353
GW   447    1     -.01  .017321       .0   -.0125  .021651       .0  .000402
GW   448    1       .0       .0       .0 -.003536  .003536       .0  .000082
GW   449    1 -.003536  .003536       .0 -.007071  .007071       .0  .000203
GW   450    1 -.007071  .007071       .0 -.010607  .010607       .0  .000289
GW   451    1 -.010607  .010607       .0 -.014142  .014142       .0  .000353
GW   452    1 -.014142  .014142       .0 -.017678  .017678       .0  .000402
GW   453    1       .0       .0       .0  -.00433    .0025       .0  .000082
GW   454    1  -.00433    .0025       .0  -.00866     .005       .0  .000203
GW   455    1  -.00866     .005       .0  -.01299    .0075       .0  .000289
GW   456    1  -.01299    .0075       .0 -.017321      .01       .0  .000353
GW   457    1 -.017321      .01       .0 -.021651    .0125       .0  .000402
GW   458    1       .0       .0       .0  -.00483  .001294       .0  .000082
GW   459    1  -.00483  .001294       .0 -.009659  .002588       .0  .000203
GW   460    1 -.009659  .002588       .0 -.014489  .003882       .0  .000289
GW   461    1 -.014489  .003882       .0 -.019319  .005176       .0  .000353
GW   462    1 -.019319  .005176       .0 -.024148   .00647       .0  .000402
GW   463    1       .0       .0       .0    -.005       .0       .0  .000082
GW   464    1    -.005       .0       .0     -.01       .0       .0  .000203
GW   465    1     -.01       .0       .0    -.015       .0       .0  .000289
GW   466    1    -.015       .0       .0     -.02       .0       .0  .000353
GW   467    1     -.02       .0       .0    -.025       .0       .0  .000402
GW   468    1       .0       .0       .0  -.00483 -.001294       .0  .000082
GW   469    1  -.00483 -.001294       .0 -.009659 -.002588       .0  .000203
GW   470    1 -.009659 -.002588       .0 -.014489 -.003882       .0  .000289
GW   471    1 -.014489 -.003882       .0 -.019319 -.005176       .0  .000353
GW   472    1 -.019319 -.005176       .0 -.024148  -.00647       .0  .000402
GW   473    1       .0       .0       .0  -.00433   -.0025       .0  .000082
GW   474    1  -.00433   -.0025       .0  -.00866    -.005       .0  .000203
GW   475    1  -.00866    -.005       .0  -.01299   -.0075       .0  .000289
GW   476    1  -.01299   -.0075       .0 -.017321     -.01       .0  .000353
GW   477    1 -.017321     -.01       .0 -.021651   -.0125       .0  .000402
GW   478    1       .0       .0       .0 -.003536 -.003536       .0  .000082
GW   479    1 -.003536 -.003536       .0 -.007071 -.007071       .0  .000203
GW   480    1 -.007071 -.007071       .0 -.010607 -.010607       .0  .000289
GW   481    1 -.010607 -.010607       .0 -.014142 -.014142       .0  .000353
GW   482    1 -.014142 -.014142       .0 -.017678 -.017678       .0  .000402
GW   483    1       .0       .0       .0   -.0025  -.00433       .0  .000082
GW   484    1   -.0025  -.00433       .0    -.005  -.00866       .0  .000203
GW   485    1    -.005  -.00866       .0   -.0075  -.01299       .0  .000289
GW   486    1   -.0075  -.01299       .0     -.01 -.017321       .0  .000353
GW   487    1     -.01 -.017321       .0   -.0125 -.021651       .0  .000402
GW   488    1       .0       .0       .0 -.001294  -.00483       .0  .000082
GW   489    1 -.001294  -.00483       .0 -.002588 -.009659       .0  .000203
GW   490    1 -.002588 -.009659       .0 -.003882 -.014489       .0  .000289
GW   491    1 -.003882 -.014489       .0 -.005176 -.019319       .0  .000353
GW   492    1 -.005176 -.019319       .0  -.00647 -.024148       .0  .000402
GW   493    1       .0       .0       .0       .0    -.005       .0  .000082
GW   494    1       .0    -.005       .0       .0     -.01       .0  .000203
GW   495    1       .0     -.01       .0       .0    -.015       .0  .000289
GW   496    1       .0    -.015       .0       .0     -.02       .0  .000353
GW   497    1       .0     -.02       .0       .0    -.025       .0  .000402
GW   498    1       .0       .0       .0  .001294  -.00483       .0  .000082
GW   499    1  .001294  -.00483       .0  .002588 -.009659       .0  .000203
GW   500    1  .002588 -.009659       .0  .003882 -.014489       .0  .000289
GW   501    1  .003882 -.014489       .0  .005176 -.019319       .0  .000353
GW   502    1  .005176 -.019319       .0   .00647 -.024148       .0  .000402
GW   503    1       .0       .0       .0    .0025  -.00433       .0  .000082
GW   504    1    .0025  -.00433       .0     .005  -.00866       .0  .000203
GW   505    1     .005  -.00866       .0    .0075  -.01299       .0  .000289
GW   506    1    .0075  -.01299       .0      .01 -.017321       .0  .000353
GW   507    1      .01 -.017321       .0    .0125 -.021651       .0  .000402
GW   508    1       .0       .0       .0  .003536 -.003536       .0  .000082
GW   509    1  .003536 -.003536       .0  .007071 -.007071       .0  .000203
GW   510    1  .007071 -.007071       .0  .010607 -.010607       .0  .000289
GW   511    1  .010607 -.010607       .0  .014142 -.014142       .0  .000353
GW   512    1  .014142 -.014142       .0  .017678 -.017678       .0  .000402
GW   513    1       .0       .0       .0   .00433   -.0025       .0  .000082
GW   514    1   .00433   -.0025       .0   .00866    -.005       .0  .000203
GW   515    1   .00866    -.005       .0   .01299   -.0075       .0  .000289
GW   516    1   .01299   -.0075       .0  .017321     -.01       .0  .000353
GW   517    1  .017321     -.01       .0  .021651   -.0125       .0  .000402
GW   518    1       .0       .0       .0   .00483 -.001294       .0  .000082
GW   519    1   .00483 -.001294       .0  .009659 -.002588       .0  .000203
GW   520    1  .009659 -.002588       .0  .014489 -.003882       .0  .000289
GW   521    1  .014489 -.003882       .0  .019319 -.005176       .0  .000353
GW   522    1  .019319 -.005176       .0  .024148  -.00647       .0  .000402
GW   523    1     .005       .0       .0   .00483  .001294       .0  .000082
GW   524    1   .00483  .001294       .0   .00433    .0025       .0  .000082
GW   525    1   .00433    .0025       .0  .003536  .003536       .0  .000082
GW   526    1  .003536  .003536       .0    .0025   .00433       .0  .000082
GW   527    1    .0025   .00433       .0  .001294   .00483       .0  .000082
GW   528    1  .001294   .00483       .0       .0     .005       .0  .000082
GW   529    1       .0     .005       .0 -.001294   .00483       .0  .000082
GW   530    1 -.001294   .00483       .0   -.0025   .00433       .0  .000082
GW   531    1   -.0025   .00433       .0 -.003536  .003536       .0  .000082
GW   532    1 -.003536  .003536       .0  -.00433    .0025       .0  .000082
GW   533    1  -.00433    .0025       .0  -.00483  .001294       .0  .000082
GW   534    1  -.00483  .001294       .0    -.005       .0       .0  .000082
GW   535    1    -.005       .0       .0  -.00483 -.001294       .0  .000082
GW   536    1  -.00483 -.001294       .0  -.00433   -.0025       .0  .000082
GW   537    1  -.00433   -.0025       .0 -.003536 -.003536       .0  .000082
GW   538    1 -.003536 -.003536       .0   -.0025  -.00433       .0  .000082
GW   539    1   -.0025  -.00433       .0 -.001294  -.00483       .0  .000082
GW   540    1 -.001294  -.00483       .0       .0    -.005       .0  .000082
GW   541    1       .0    -.005       .0  .001294  -.00483       .0  .000082
GW   542    1  .001294  -.00483       .0    .0025  -.00433       .0  .000082
GW   543    1    .0025  -.00433       .0  .003536 -.003536       .0  .000082
GW   544    1  .003536 -.003536       .0   .00433   -.0025       .0  .000082
GW   545    1   .00433   -.0025       .0   .00483 -.001294       .0  .000082
GW   546    1   .00483 -.001294       .0     .005       .0       .0  .000082
GW   547    1      .01       .0       .0  .009659  .002588       .0  .000203
GW   548    1  .009659  .002588       .0   .00866     .005       .0  .000203
GW   549    1   .00866     .005       .0  .007071  .007071       .0  .000203
GW   550    1  .007071  .007071       .0     .005   .00866       .0  .000203
GW   551    1     .005   .00866       .0  .002588  .009659       .0  .000203
GW   552    1  .002588  .009659       .0       .0      .01       .0  .000203
GW   553    1       .0      .01       .0 -.002588  .009659       .0  .000203
GW   554    1 -.002588  .009659       .0    -.005   .00866       .0  .000203
GW   555    1    -.005   .00866       .0 -.007071  .007071       .0  .000203
GW   556    1 -.007071  .007071       .0  -.00866     .005       .0  .000203
GW   557    1  -.00866     .005       .0 -.009659  .002588       .0  .000203
GW   558    1 -.009659  .002588       .0     -.01       .0       .0  .000203
GW   559    1     -.01       .0       .0 -.009659 -.002588       .0  .000203
GW   560    1 -.009659 -.002588       .0  -.00866    -.005       .0  .000203
GW   561    1  -.00866    -.005       .0 -.007071 -.007071       .0  .000203
GW   562    1 -.007071 -.007071       .0    -.005  -.00866       .0  .000203
GW   563    1    -.005  -.00866       .0 -.002588 -.009659       .0  .000203
GW   564    1 -.002588 -.009659       .0       .0     -.01       .0  .000203
GW   565    1       .0     -.01       .0  .002588 -.009659       .0  .000203
GW   566    1  .002588 -.009659       .0     .005  -.00866       .0  .000203
GW   567    1     .005  -.00866       .0  .007071 -.007071       .0  .000203
GW   568    1  .007071 -.007071       .0   .00866    -.005       .0  .000203
GW   569    1   .00866    -.005       .0  .009659 -.002588       .0  .000203
GW   570    1  .009659 -.002588       .0      .01       .0       .0  .000203
GW   571    1     .015       .0       .0  .014489  .003882       .0  .000289
GW   572    1  .014489  .003882       .0   .01299    .0075       .0  .000289
GW   573    1   .01299    .0075       .0  .010607  .010607       .0  .000289
GW   574    1  .010607  .010607       .0    .0075   .01299       .0  .000289
GW   575    1    .0075   .01299       .0  .003882  .014489       .0  .000289
GW   576    1  .003882  .014489       .0       .0     .015       .0  .000289
GW   577    1       .0     .015       .0 -.003882  .014489       .0  .000289
GW   578    1 -.003882  .014489       .0   -.0075   .01299       .0  .000289
GW   579    1   -.0075   .01299       .0 -.010607  .010607       .0  .000289
GW   580    1 -.010607  .010607       .0  -.01299    .0075       .0  .000289
GW   581    1  -.01299    .0075       .0 -.014489  .003882       .0  .000289
GW   582    1 -.014489  .003882       .0    -.015       .0       .0  .000289
GW   583    1    -.015       .0       .0 -.014489 -.003882       .0  .000289
GW   584    1 -.014489 -.003882       .0  -.01299   -.0075       .0  .000289
GW   585    1  -.01299   -.0075       .0 -.010607 -.010607       .0  .000289
GW   586    1 -.010607 -.010607       .0   -.0075  -.01299       .0  .000289
GW   587    1   -.0075  -.01299       .0 -.003882 -.014489       .0  .000289
GW   588    1 -.003882 -.014489       .0       .0    -.015       .0  .000289
GW   589    1       .0    -.015       .0  .003882 -.014489       .0  .000289
GW   590    1  .003882 -.014489       .0    .0075  -.01299       .0  .000289
GW   591    1    .0075  -.01299       .0  .010607 -.010607       .0  .000289
GW   592    1  .010607 -.010607       .0   .01299   -.0075       .0  .000289
GW   593    1   .01299   -.0075       .0  .014489 -.003882       .0  .000289
GW   594    1  .014489 -.003882       .0     .015       .0       .0  .000289
GW   595    1      .02       .0       .0  .019319  .005176       .0  .000353
GW   596    1  .019319  .005176       .0  .017321      .01       .0  .000353
GW   597    1  .017321      .01       .0  .014142  .014142       .0  .000353
GW   598    1  .014142  .014142       .0      .01  .017321       .0  .000353
GW   599    1      .01  .017321       .0  .005176  .019319       .0  .000353
GW   600    1  .005176  .019319       .0       .0      .02       .0  .000353
GW   601    1       .0      .02       .0 -.005176  .019319       .0  .000353
GW   602    1 -.005176  .019319       .0     -.01  .017321       .0  .000353
GW   603    1     -.01  .017321       .0 -.014142  .014142       .0  .000353
GW   604    1 -.014142  .014142       .0 -.017321      .01       .0  .000353
GW   605    1 -.017321      .01       .0 -.019319  .005176       .0  .000353
GW   606    1 -.019319  .005176       .0     -.02       .0       .0  .000353
GW   607    1     -.02       .0       .0 -.019319 -.005176       .0  .000353
GW   608    1 -.019319 -.005176       .0 -.017321     -.01       .0  .000353
GW   609    1 -.017321     -.01       .0 -.014142 -.014142       .0  .000353
GW   610    1 -.014142 -.014142       .0     -.01 -.017321       .0  .000353
GW   611    1     -.01 -.017321       .0 -.005176 -.019319       .0  .000353
GW   612    1 -.005176 -.019319       .0       .0     -.02       .0  .000353
GW   613    1       .0     -.02       .0  .005176 -.019319       .0  .000353
GW   614    1  .005176 -.019319       .0      .01 -.017321       .0  .000353
GW   615    1      .01 -.017321       .0  .014142 -.014142       .0  .000353
GW   616    1  .014142 -.014142       .0  .017321     -.01       .0  .000353
GW   617    1  .017321     -.01       .0  .019319 -.005176       .0  .000353
GW   618    1  .019319 -.005176       .0      .02       .0       .0  .000353
GW   619    1     .025       .0       .0  .024148   .00647       .0  .000402
GW   620    1  .024148   .00647       .0  .021651    .0125       .0  .000402
GW   621    1  .021651    .0125       .0  .017678  .017678       .0  .000402
GW   622    1  .017678  .017678       .0    .0125  .021651       .0  .000402
GW   623    1    .0125  .021651       .0   .00647  .024148       .0  .000402
GW   624    1   .00647  .024148       .0       .0     .025       .0  .000402
GW   625    1       .0     .025       .0  -.00647  .024148       .0  .000402
GW   626    1  -.00647  .024148       .0   -.0125  .021651       .0  .000402
GW   627    1   -.0125  .021651       .0 -.017678  .017678       .0  .000402
GW   628    1 -.017678  .017678       .0 -.021651    .0125       .0  .000402
GW   629    1 -.021651    .0125       .0 -.024148   .00647       .0  .000402
GW   630    1 -.024148   .00647       .0    -.025       .0       .0  .000402
GW   631    1    -.025       .0       .0 -.024148  -.00647       .0  .000402
GW   632    1 -.024148  -.00647       .0 -.021651   -.0125       .0  .000402
GW   633    1 -.021651   -.0125       .0 -.017678 -.017678       .0  .000402
GW   634    1 -.017678 -.017678       .0   -.0125 -.021651       .0  .000402
GW   635    1   -.0125 -.021651       .0  -.00647 -.024148       .0  .000402
GW   636    1  -.00647 -.024148       .0       .0    -.025       .0  .000402
GW   637    1       .0    -.025       .0   .00647 -.024148       .0  .000402
GW   638    1   .00647 -.024148       .0    .0125 -.021651       .0  .000402
GW   639    1    .0125 -.021651       .0  .017678 -.017678       .0  .000402
GW   640    1  .017678 -.017678       .0  .021651   -.0125       .0  .000402
GW   641    1  .021651   -.0125       .0  .024148  -.00647       .0  .000402
GW   642    1  .024148  -.00647       .0     .025       .0       .0  .000402
GE 0
